
  EPA STORM WATER MANAGEMENT MODEL - VERSION 5.1 (Build 5.1.007)
  --------------------------------------------------------------

  INP file created on 2017/6/10 18:21:57 by nnuxd with inpPINS version 0.0.3.0 
  Title/Notes: 
  
  *********************************************************
  NOTE: The summary statistics displayed in this report are
  based on results found at every computational time step,  
  not just on results from each reporting time step.
  *********************************************************
  
  ****************
  Analysis Options
  ****************
  Flow Units ............... LPS
  Process Models:
    Rainfall/Runoff ........ YES
    RDII ................... NO
    Snowmelt ............... NO
    Groundwater ............ NO
    Flow Routing ........... YES
    Ponding Allowed ........ NO
    Water Quality .......... NO
  Infiltration Method ...... HORTON
  Flow Routing Method ...... KINWAVE
  Starting Date ............ JUN-10-2017 00:00:00
  Ending Date .............. JUN-10-2017 03:00:00
  Antecedent Dry Days ...... 0.0
  Report Time Step ......... 00:01:00
  Wet Time Step ............ 00:01:00
  Dry Time Step ............ 01:00:00
  Routing Time Step ........ 15.00 sec
  
  
  *************
  Element Count
  *************
  Number of rain gages ...... 1
  Number of subcatchments ... 83
  Number of nodes ........... 129
  Number of links ........... 116
  Number of pollutants ...... 0
  Number of land uses ....... 0
  
  
  ****************
  Raingage Summary
  ****************
                                                      Data       Recording
  Name                 Data Source                    Type       Interval 
  ------------------------------------------------------------------------
  rain                 2-yr                           INTENSITY    1 min.
  
  
  ********************
  Subcatchment Summary
  ********************
  Name                       Area     Width   %Imperv    %Slope Rain Gage            Outlet              
  -----------------------------------------------------------------------------------------------------------
  Sub0                       0.08     21.38     44.04    1.4698 rain                 WeLL28              
  Sub1                       0.07     21.43     26.14    2.2731 rain                 WeLL30              
  Sub2                       0.04     10.77     70.52    1.9536 rain                 WeLL74              
  Sub3                       0.02     10.85    100.00    1.8706 rain                 WeLL51              
  Sub4                       0.01      3.19    100.00    1.0000 rain                 WeLL52              
  Sub5                       0.02      8.87     58.39    2.4109 rain                 WeLL52              
  Sub6                       0.01      2.88     99.98    1.1056 rain                 WeLL51              
  Sub7                       0.01      2.95     99.94    1.9784 rain                 WeLL1               
  Sub8                       0.01      2.90     99.96    1.0000 rain                 WeLL76              
  Sub9                       0.07     21.14     76.59    2.1166 rain                 WeLL83              
  Sub10                      0.12     12.48     20.92    2.1802 rain                 WeLL70              
  Sub11                      0.03      8.40     89.91    1.6964 rain                 WeLL67              
  Sub12                      0.04     13.37     82.82    2.1955 rain                 WeLL16              
  Sub13                      0.11     11.38     12.30    3.4629 rain                 WeLL24              
  Sub14                      0.04     14.62     16.53    2.7811 rain                 WeLL24              
  Sub15                      0.01      4.13     99.89    1.3250 rain                 WeLL45              
  Sub16                      0.01      3.91    100.01    1.2273 rain                 WeLL48              
  Sub17                      0.07     14.08     89.65    1.7462 rain                 WeLL51              
  Sub18                      0.03     11.99     69.02    2.7679 rain                 WeLL1               
  Sub19                      0.04     12.42     55.31    3.3114 rain                 WeLL76              
  Sub20                      0.02     10.46     74.19    2.0568 rain                 WeLL80              
  Sub21                      0.04     16.62     33.17    3.3818 rain                 WeLL92              
  Sub22                      0.01      3.88    100.00    1.3134 rain                 WeLL106             
  Sub23                      0.06      9.76     69.78    2.8502 rain                 Node3               
  Sub24                      0.02      8.87     36.95    3.3893 rain                 WeLL44              
  Sub25                      0.07     14.26     88.59    1.7885 rain                 WeLL57              
  Sub26                      0.03     13.93     40.65    3.1649 rain                 WeLL87              
  Sub27                      0.05     16.20     72.18    2.0365 rain                 WeLL89              
  Sub28                      0.05     11.95     37.71    1.4973 rain                 WeLL73              
  Sub29                      0.03     11.07     76.80    1.6820 rain                 WeLL74              
  Sub30                      0.05     14.97     78.75    1.9281 rain                 WeLL86              
  Sub31                      0.03      4.89      8.41    4.4902 rain                 Node0               
  Sub32                      0.08     17.24     21.99    3.3770 rain                 Node4               
  Sub33                      0.08     14.03     56.98    2.5875 rain                 Node2               
  Sub34                      0.07     12.46     32.73    3.3974 rain                 Node4               
  Sub35                      0.05      9.59     63.44    2.9881 rain                 Node5               
  Sub36                      0.12     16.34     17.30    3.6669 rain                 WeLL39              
  Sub37                      0.05     10.27     31.68    3.8015 rain                 WeLL72              
  Sub38                      0.03      8.92     41.70    2.8533 rain                 WeLL28              
  Sub39                      0.09     25.39     25.07    2.3715 rain                 WeLL68              
  Sub40                      0.02      9.81     54.82    2.8043 rain                 WeLL64              
  Sub41                      0.03      9.33     55.20    2.6507 rain                 WeLL68              
  Sub42                      0.03     12.79     54.69    2.4319 rain                 WeLL70              
  Sub43                      0.01      5.87     68.71    3.0667 rain                 WeLL32              
  Sub44                      0.07     13.63     91.19    1.5673 rain                 WeLL35              
  Sub45                      0.03      9.28     71.06    1.9308 rain                 WeLL30              
  Sub46                      0.02      9.86     54.50    3.0000 rain                 WeLL28              
  Sub47                      0.09     16.20     30.28    3.6362 rain                 WeLL38              
  Sub48                      0.03     14.27     21.01    3.9943 rain                 WeLL53              
  Sub49                      0.01      4.60     70.81    1.9560 rain                 WeLL9               
  Sub50                      0.05     13.58     24.35    3.5219 rain                 WeLL33              
  Sub51                      0.03      9.27     26.67    3.9573 rain                 WeLL64              
  Sub52                      0.03      8.87     73.17    2.1222 rain                 WeLL66              
  Sub53                      0.02      8.13     63.20    2.5671 rain                 WeLL67              
  Sub54                      0.07     13.86     89.61    1.6108 rain                 WeLL55              
  Sub55                      0.08     22.03     22.77    4.0991 rain                 WeLL11              
  Sub56                      0.04     14.87     30.30    3.6090 rain                 WeLL13              
  Sub57                      0.07     14.37     88.47    1.7681 rain                 WeLL56              
  Sub58                      0.07     14.31     88.51    1.6687 rain                 WeLL58              
  Sub59                      0.03     12.03     65.17    2.0942 rain                 WeLL11              
  Sub60                      0.08     15.23     40.20    2.6536 rain                 WeLL13              
  Sub61                      0.02      5.39     71.65    1.2035 rain                 WeLL80              
  Sub62                      0.13     14.12     15.51    2.9612 rain                 WeLL8               
  Sub63                      0.13     17.19     17.61    2.5983 rain                 WeLL8               
  Sub64                      0.02      9.35     29.04    2.4580 rain                 WeLL53              
  Sub65                      0.01      4.67     99.90    1.3192 rain                 WeLL95              
  Sub66                      0.02     11.65     24.74    3.1400 rain                 WeLL96              
  Sub67                      0.03     11.16     63.75    2.4154 rain                 WeLL105             
  Sub68                      0.02      5.15    100.00    1.3000 rain                 WeLL105             
  Sub69                      0.04      9.36     29.87    2.6946 rain                 WeLL25              
  Sub70                      0.01      6.14     99.98    1.4186 rain                 WeLL37              
  Sub71                      0.04     13.94     41.86    3.5866 rain                 WeLL25              
  Sub72                      0.03     11.34     72.90    1.6568 rain                 WeLL4               
  Sub73                      0.03     11.88     70.37    1.8096 rain                 WeLL2               
  Sub74                      0.04     11.50     35.46    3.2053 rain                 WeLL2               
  Sub75                      0.03     13.44     35.13    2.8246 rain                 WeLL9               
  Sub76                      0.03     15.78     42.58    2.9521 rain                 WeLL9               
  Sub77                      0.04     11.09     29.39    3.9918 rain                 WeLL16              
  Sub78                      0.02      7.47     59.98    1.0000 rain                 WeLL70              
  Sub79                      0.07     19.55     49.89    2.7680 rain                 WeLL87              
  Sub80                      0.01      6.51     48.97    3.8235 rain                 WeLL83              
  Sub81                      0.04     15.49     91.43    1.7409 rain                 WeLL78              
  Sub82                      0.06     12.12     21.01    4.2025 rain                 Node1               
  
  
  ************
  Node Summary
  ************
                                           Invert      Max.    Ponded    External
  Name                 Type                 Elev.     Depth      Area    Inflow  
  -------------------------------------------------------------------------------
  AdminWeLL0           JUNCTION              0.46      1.00       0.0
  AdminWeLL1           JUNCTION              1.00      1.00       0.0
  AdminWeLL2           JUNCTION              0.34      1.00       0.0
  AdminWeLL3           JUNCTION              0.42      1.00       0.0
  AdminWeLL4           JUNCTION              0.42      1.00       0.0
  Node0                JUNCTION              3.90      0.30       0.0
  Node1                JUNCTION              3.90      0.30       0.0
  Node2                JUNCTION              3.57      0.30       0.0
  Node3                JUNCTION              3.57      0.30       0.0
  Node4                JUNCTION              3.57      0.30       0.0
  Node5                JUNCTION              3.57      0.30       0.0
  WeLL0                JUNCTION              1.20      1.00       0.0
  WeLL1                JUNCTION              1.50      1.00       0.0
  WeLL2                JUNCTION              1.70      1.00       0.0
  WeLL3                JUNCTION              1.66      1.00       0.0
  WeLL4                JUNCTION              1.62      1.00       0.0
  WeLL5                JUNCTION              1.59      1.00       0.0
  WeLL6                JUNCTION              1.47      1.00       0.0
  WeLL7                JUNCTION              1.41      1.00       0.0
  WeLL8                JUNCTION              1.03      1.00       0.0
  WeLL9                JUNCTION              1.50      1.00       0.0
  WeLL10               JUNCTION              1.26      1.00       0.0
  WeLL11               JUNCTION              1.70      1.00       0.0
  WeLL12               JUNCTION              1.66      1.00       0.0
  WeLL13               JUNCTION              1.62      1.00       0.0
  WeLL14               JUNCTION              1.59      1.00       0.0
  WeLL15               JUNCTION              1.38      1.00       0.0
  WeLL16               JUNCTION              1.50      1.00       0.0
  WeLL17               JUNCTION              1.50      1.00       0.0
  WeLL18               JUNCTION              1.44      1.00       0.0
  WeLL19               JUNCTION              1.40      1.00       0.0
  WeLL20               JUNCTION              1.22      1.00       0.0
  WeLL21               JUNCTION              1.18      1.00       0.0
  WeLL22               JUNCTION              1.09      1.00       0.0
  WeLL23               JUNCTION              1.07      1.00       0.0
  WeLL24               JUNCTION              0.97      1.00       0.0
  WeLL25               JUNCTION              1.50      1.00       0.0
  WeLL26               JUNCTION              1.29      1.00       0.0
  WeLL27               JUNCTION              1.38      1.00       0.0
  WeLL28               JUNCTION              1.70      1.00       0.0
  WeLL29               JUNCTION              1.46      1.00       0.0
  WeLL30               JUNCTION              1.42      1.00       0.0
  WeLL31               JUNCTION              1.38      1.00       0.0
  WeLL32               JUNCTION              1.25      1.00       0.0
  WeLL33               JUNCTION              1.70      1.00       0.0
  WeLL34               JUNCTION              1.67      1.00       0.0
  WeLL35               JUNCTION              1.63      1.00       0.0
  WeLL36               JUNCTION              1.58      1.00       0.0
  WeLL37               JUNCTION              1.53      1.00       0.0
  WeLL38               JUNCTION              1.55      1.00       0.0
  WeLL39               JUNCTION              1.50      1.00       0.0
  WeLL40               JUNCTION              1.47      1.00       0.0
  WeLL41               JUNCTION              1.44      1.00       0.0
  WeLL42               JUNCTION              1.41      1.00       0.0
  WeLL43               JUNCTION              0.95      1.00       0.0
  WeLL44               JUNCTION              0.98      1.00       0.0
  WeLL45               JUNCTION              1.00      1.00       0.0
  WeLL46               JUNCTION              1.06      1.00       0.0
  WeLL47               JUNCTION              1.10      1.00       0.0
  WeLL48               JUNCTION              1.18      1.00       0.0
  WeLL49               JUNCTION              1.47      1.00       0.0
  WeLL50               JUNCTION              1.44      1.00       0.0
  WeLL51               JUNCTION              1.41      1.00       0.0
  WeLL52               JUNCTION              1.35      1.00       0.0
  WeLL53               JUNCTION              1.70      1.00       0.0
  WeLL54               JUNCTION              1.67      1.00       0.0
  WeLL55               JUNCTION              1.63      1.00       0.0
  WeLL56               JUNCTION              1.33      1.00       0.0
  WeLL57               JUNCTION              1.43      1.00       0.0
  WeLL58               JUNCTION              1.14      1.00       0.0
  WeLL59               JUNCTION              1.64      1.00       0.0
  WeLL60               JUNCTION              1.61      1.00       0.0
  WeLL61               JUNCTION              1.58      1.00       0.0
  WeLL62               JUNCTION              1.54      1.00       0.0
  WeLL63               JUNCTION              1.56      1.00       0.0
  WeLL64               JUNCTION              1.70      1.00       0.0
  WeLL65               JUNCTION              1.66      1.00       0.0
  WeLL66               JUNCTION              1.62      1.00       0.0
  WeLL67               JUNCTION              1.49      1.00       0.0
  WeLL68               JUNCTION              1.70      1.00       0.0
  WeLL69               JUNCTION              1.68      1.00       0.0
  WeLL70               JUNCTION              1.28      1.00       0.0
  WeLL71               JUNCTION              1.70      1.00       0.0
  WeLL72               JUNCTION              1.62      1.00       0.0
  WeLL73               JUNCTION              1.50      1.00       0.0
  WeLL74               JUNCTION              1.46      1.00       0.0
  WeLL75               JUNCTION              1.23      1.00       0.0
  WeLL76               JUNCTION              1.50      1.00       0.0
  WeLL77               JUNCTION              1.46      1.00       0.0
  WeLL78               JUNCTION              1.44      1.00       0.0
  WeLL79               JUNCTION              1.41      1.00       0.0
  WeLL80               JUNCTION              1.00      1.00       0.0
  WeLL81               JUNCTION              1.45      1.00       0.0
  WeLL82               JUNCTION              1.50      1.00       0.0
  WeLL83               JUNCTION              0.97      1.00       0.0
  WeLL84               JUNCTION              0.85      1.00       0.0
  WeLL85               JUNCTION              0.80      1.00       0.0
  WeLL86               JUNCTION              0.97      1.00       0.0
  WeLL87               JUNCTION              1.00      1.00       0.0
  WeLL88               JUNCTION              0.77      1.00       0.0
  WeLL89               JUNCTION              0.91      1.00       0.0
  WeLL90               JUNCTION              0.89      1.00       0.0
  WeLL91               JUNCTION              0.73      1.00       0.0
  WeLL92               JUNCTION              1.50      1.00       0.0
  WeLL93               JUNCTION              1.35      1.00       0.0
  WeLL94               JUNCTION              1.20      1.00       0.0
  WeLL95               JUNCTION              0.94      1.00       0.0
  WeLL96               JUNCTION              0.91      1.00       0.0
  WeLL97               JUNCTION              0.86      1.00       0.0
  WeLL100              JUNCTION              0.91      1.00       0.0
  WeLL102              JUNCTION              0.88      1.00       0.0
  WeLL103              JUNCTION              0.87      1.00       0.0
  WeLL104              JUNCTION              0.82      1.00       0.0
  WeLL105              JUNCTION              0.77      1.00       0.0
  WeLL106              JUNCTION              0.73      1.00       0.0
  WeLL107              JUNCTION              1.58      1.00       0.0
  WeLL108              JUNCTION              1.67      1.00       0.0
  Outfall1             OUTFALL               0.00      0.30       0.0
  Outfall2             OUTFALL               0.00      0.30       0.0
  Outfall3             OUTFALL               0.00      0.30       0.0
  Outfall4             OUTFALL               0.00      0.30       0.0
  Outfall5             OUTFALL               0.30      0.30       0.0
  Storage0             STORAGE               1.00      2.50       0.0
  Storage1             STORAGE               2.00      1.00       0.0
  Storage2             STORAGE               2.00      1.00       0.0
  Storage3             STORAGE               0.00      1.00       0.0
  Storage4             STORAGE               2.00      1.00       0.0
  Storage5             STORAGE               0.00      1.00       0.0
  Storage6             STORAGE               0.00      1.00       0.0
  
  
  ************
  Link Summary
  ************
  Name             From Node        To Node          Type            Length    %Slope Roughness
  ---------------------------------------------------------------------------------------------
  Culvert0         Node0            WeLL92           CONDUIT           46.0    5.2297    0.0200
  Culvert1         Node1            WeLL84           CONDUIT           23.5   13.0573    0.0200
  Culvert2         Node3            WeLL46           CONDUIT           46.0    5.4508    0.0200
  Culvert3         Node5            WeLL86           CONDUIT           48.0    5.4222    0.0200
  Culvert4         Node2            WeLL47           CONDUIT           46.0    5.3854    0.0200
  Culvert5         Node4            WeLL87           CONDUIT           42.6    6.0487    0.0200
  Conduit0         WeLL76           WeLL77           CONDUIT           15.0    0.3003    0.0150
  Conduit1         WeLL77           WeLL78           CONDUIT            6.3    0.2992    0.0150
  Conduit2         WeLL78           WeLL79           CONDUIT            8.5    0.3077    0.0150
  Conduit3         WeLL79           WeLL80           CONDUIT            7.5    5.4533    0.0150
  Conduit4         WeLL82           WeLL81           CONDUIT           15.2    0.3034    0.0150
  Conduit5         WeLL81           WeLL80           CONDUIT           16.2    2.8118    0.0150
  Conduit6         WeLL80           WeLL83           CONDUIT           11.3    0.3020    0.0150
  Conduit7         WeLL83           WeLL84           CONDUIT            5.0    2.3083    0.0150
  Conduit8         WeLL84           WeLL85           CONDUIT           15.8    0.3038    0.0150
  Conduit9         WeLL85           WeLL88           CONDUIT           10.8    0.3064    0.0150
  Conduit10        WeLL88           WeLL91           CONDUIT           11.9    0.3016    0.0150
  Conduit11        WeLL87           WeLL86           CONDUIT            9.6    0.3019    0.0150
  Conduit12        WeLL86           WeLL89           CONDUIT           19.9    0.3008    0.0150
  Conduit13        WeLL89           WeLL90           CONDUIT            8.6    0.3033    0.0150
  Conduit14        WeLL90           AdminWeLL2       CONDUIT           24.0    2.2729    0.0150
  Conduit15        WeLL73           WeLL74           CONDUIT           13.6    0.3099    0.0150
  Conduit16        WeLL71           WeLL108          CONDUIT            8.9    0.3028    0.0150
  Conduit17        WeLL108          WeLL72           CONDUIT           17.3    0.3001    0.0150
  Conduit18        WeLL72           WeLL74           CONDUIT           14.4    1.1340    0.0150
  Conduit19        WeLL74           WeLL70           CONDUIT           24.1    0.7172    0.0150
  Conduit20        WeLL68           WeLL69           CONDUIT            5.9    0.3065    0.0150
  Conduit21        WeLL69           WeLL70           CONDUIT           13.7    2.9055    0.0150
  Conduit22        WeLL70           WeLL75           CONDUIT           17.5    0.3032    0.0150
  Conduit23        WeLL75           AdminWeLL1       CONDUIT           20.8    1.1138    0.0150
  Conduit24        WeLL64           WeLL65           CONDUIT           14.2    0.3036    0.0150
  Conduit25        WeLL65           WeLL66           CONDUIT           13.2    0.3022    0.0150
  Conduit26        WeLL66           WeLL107          CONDUIT           11.6    0.3016    0.0150
  Conduit27        WeLL107          WeLL67           CONDUIT            9.0    1.0224    0.0150
  Conduit28        WeLL28           WeLL39           CONDUIT           14.2    1.4065    0.0150
  Conduit29        WeLL29           WeLL30           CONDUIT           10.7    0.3095    0.0150
  Conduit30        WeLL30           WeLL31           CONDUIT           13.1    0.3059    0.0150
  Conduit31        WeLL31           WeLL32           CONDUIT           12.8    1.0852    0.0150
  Conduit32        WeLL53           WeLL54           CONDUIT            8.9    0.3034    0.0150
  Conduit33        WeLL54           WeLL59           CONDUIT           10.7    0.3084    0.0150
  Conduit34        WeLL59           WeLL55           CONDUIT            4.3    0.3022    0.0150
  Conduit35        WeLL55           WeLL60           CONDUIT            4.3    0.3025    0.0150
  Conduit36        WeLL60           WeLL61           CONDUIT           10.7    0.3084    0.0150
  Conduit37        WeLL61           WeLL63           CONDUIT            5.5    0.3091    0.0150
  Conduit38        WeLL63           WeLL62           CONDUIT            6.8    0.3082    0.0150
  Conduit39        WeLL62           WeLL67           CONDUIT           17.6    0.3020    0.0150
  Conduit40        WeLL17           WeLL18           CONDUIT           19.7    0.3050    0.0150
  Conduit41        WeLL18           WeLL19           CONDUIT           13.4    0.3055    0.0150
  Conduit42        WeLL16           WeLL19           CONDUIT           20.7    0.4888    0.0150
  Conduit43        WeLL11           WeLL12           CONDUIT           11.7    0.3080    0.0150
  Conduit44        WeLL12           WeLL13           CONDUIT           13.1    0.3054    0.0150
  Conduit45        WeLL13           WeLL14           CONDUIT           11.7    0.3077    0.0150
  Conduit46        WeLL14           WeLL15           CONDUIT            6.4    3.3135    0.0150
  Conduit47        WeLL15           WeLL93           CONDUIT           10.1    0.3070    0.0150
  Conduit48        WeLL93           WeLL20           CONDUIT            7.9    1.5700    0.0150
  Conduit49        WeLL20           WeLL0            CONDUIT            6.6    0.3026    0.0150
  Conduit50        WeLL0            WeLL21           CONDUIT            5.5    0.3090    0.0150
  Conduit51        WeLL21           WeLL58           CONDUIT           15.0    0.3002    0.0150
  Conduit52        WeLL58           WeLL22           CONDUIT           15.0    0.2996    0.0150
  Conduit53        WeLL22           WeLL23           CONDUIT            9.0    0.3007    0.0150
  Conduit54        WeLL23           WeLL8            CONDUIT           12.7    0.3073    0.0150
  Conduit55        WeLL7            WeLL27           CONDUIT           12.3    0.3002    0.0150
  Conduit56        WeLL27           WeLL56           CONDUIT           15.0    0.2999    0.0150
  Conduit57        WeLL56           WeLL26           CONDUIT           15.0    0.3001    0.0150
  Conduit58        WeLL26           WeLL10           CONDUIT            9.0    0.3002    0.0150
  Conduit59        WeLL10           WeLL94           CONDUIT           20.7    0.3047    0.0150
  Conduit60        WeLL94           WeLL8            CONDUIT            3.2    5.1787    0.0150
  Conduit61        WeLL9            WeLL94           CONDUIT           13.8    2.2028    0.0150
  Conduit62        WeLL8            WeLL24           CONDUIT           17.8    0.3032    0.0150
  Conduit63        WeLL24           AdminWeLL0       CONDUIT            1.9   28.4402    0.0150
  Conduit64        WeLL2            WeLL3            CONDUIT           11.7    0.3077    0.0150
  Conduit65        WeLL3            WeLL4            CONDUIT           13.1    0.3053    0.0150
  Conduit66        WeLL4            WeLL5            CONDUIT           11.7    0.3077    0.0150
  Conduit67        WeLL5            WeLL6            CONDUIT            6.6    1.8334    0.0150
  Conduit68        WeLL6            WeLL7            CONDUIT           18.0    0.2999    0.0150
  Conduit69        WeLL25           WeLL6            CONDUIT           10.8    0.3058    0.0150
  Conduit70        WeLL33           WeLL34           CONDUIT           10.0    0.3010    0.0150
  Conduit71        WeLL34           WeLL35           CONDUIT           15.0    0.3002    0.0150
  Conduit72        WeLL35           WeLL36           CONDUIT           15.0    0.2998    0.0150
  Conduit73        WeLL36           WeLL38           CONDUIT            9.0    0.2998    0.0150
  Conduit74        WeLL38           WeLL37           CONDUIT            6.2    0.3076    0.0150
  Conduit75        WeLL39           WeLL40           CONDUIT            9.0    0.3016    0.0150
  Conduit76        WeLL40           WeLL41           CONDUIT           10.7    0.3084    0.0150
  Conduit77        WeLL41           WeLL57           CONDUIT            4.3    0.3030    0.0150
  Conduit78        WeLL57           WeLL42           CONDUIT            4.2    0.3094    0.0150
  Conduit79        WeLL42           WeLL43           CONDUIT           10.7    4.3755    0.0150
  Conduit80        WeLL102          WeLL103          CONDUIT            8.4    0.1070    0.0150
  Conduit81        WeLL45           WeLL44           CONDUIT            7.3    0.3024    0.0150
  Conduit82        WeLL104          WeLL106          CONDUIT           29.6    0.3041    0.0150
  Conduit83        WeLL46           WeLL45           CONDUIT           22.1    0.3038    0.0150
  Conduit84        WeLL47           WeLL46           CONDUIT            9.8    0.3059    0.0150
  Conduit85        WeLL48           WeLL47           CONDUIT           27.3    0.3001    0.0150
  Conduit86        WeLL52           WeLL48           CONDUIT           22.5    0.7452    0.0150
  Conduit87        WeLL92           WeLL48           CONDUIT            7.6    4.2703    0.0150
  Conduit88        WeLL1            WeLL49           CONDUIT           11.1    0.3062    0.0150
  Conduit89        WeLL49           WeLL50           CONDUIT            9.6    0.3006    0.0150
  Conduit90        WeLL50           WeLL51           CONDUIT            8.3    0.3029    0.0150
  Conduit91        WeLL51           WeLL52           CONDUIT           22.3    0.3009    0.0150
  Conduit92        WeLL106          AdminWeLL3       CONDUIT           36.4    0.8407    0.0150
  Conduit93        WeLL43           WeLL100          CONDUIT           12.8    0.3047    0.0150
  Conduit95        WeLL97           WeLL105          CONDUIT           30.0    0.3000    0.0150
  Conduit96        WeLL32           WeLL95           CONDUIT           34.4    0.9012    0.0150
  Conduit97        WeLL95           WeLL96           CONDUIT            8.5    0.3059    0.0150
  Conduit98        WeLL105          AdminWeLL4       CONDUIT           26.6    1.3309    0.0150
  Conduit99        WeLL37           WeLL32           CONDUIT           18.6    1.5540    0.0150
  Conduit100       WeLL67           WeLL75           CONDUIT            7.3    3.5365    0.0150
  Conduit101       WeLL91           AdminWeLL2       CONDUIT            2.0   20.0938    0.0150
  Conduit102       WeLL103          WeLL104          CONDUIT           19.1    0.3037    0.0150
  Conduit105       WeLL100          WeLL102          CONDUIT            2.8    0.9286    0.0150
  Conduit106       WeLL44           WeLL43           CONDUIT           10.0    0.2800    0.0150
  Conduit107       WeLL19           WeLL15           CONDUIT            7.4    0.3108    0.0150
  AdminToOut1      AdminWeLL3       Outfall3         CONDUIT           10.0    4.2037    0.0100
  AdminToOut2      AdminWeLL4       Outfall2         CONDUIT           10.0    4.2037    0.0100
  AdminToOut3      AdminWeLL2       Outfall4         CONDUIT           10.0    3.4020    0.0100
  AdminToOut4      AdminWeLL1       Outfall5         CONDUIT           10.0    7.0172    0.0100
  AdminToOut5      AdminWeLL0       Outfall1         CONDUIT           10.0    4.6049    0.0100
  
  
  *********************
  Cross Section Summary
  *********************
                                        Full     Full     Hyd.     Max.   No. of     Full
  Conduit          Shape               Depth     Area     Rad.    Width  Barrels     Flow
  ---------------------------------------------------------------------------------------
  Culvert0         RECT_OPEN            0.30     0.06     0.07     0.20        1   122.02
  Culvert1         TRAPEZOIDAL          0.30     0.11     0.12     0.50        1   463.04
  Culvert2         TRAPEZOIDAL          0.30     0.11     0.12     0.50        1   299.17
  Culvert3         TRAPEZOIDAL          0.30     0.11     0.12     0.50        1   298.39
  Culvert4         TRAPEZOIDAL          0.30     0.11     0.12     0.50        1   297.37
  Culvert5         TRAPEZOIDAL          0.30     0.11     0.12     0.50        1   315.16
  Conduit0         CIRCULAR             0.33     0.08     0.08     0.33        1    56.86
  Conduit1         CIRCULAR             0.33     0.08     0.08     0.33        1    56.75
  Conduit2         CIRCULAR             0.33     0.08     0.08     0.33        1    57.55
  Conduit3         CIRCULAR             0.33     0.08     0.08     0.33        1   242.29
  Conduit4         CIRCULAR             0.33     0.08     0.08     0.33        1    57.15
  Conduit5         CIRCULAR             0.33     0.08     0.08     0.33        1   173.98
  Conduit6         CIRCULAR             0.33     0.08     0.08     0.33        1    57.02
  Conduit7         CIRCULAR             0.33     0.08     0.08     0.33        1   157.64
  Conduit8         CIRCULAR             0.33     0.08     0.08     0.33        1    57.19
  Conduit9         CIRCULAR             0.33     0.08     0.08     0.33        1    57.43
  Conduit10        CIRCULAR             0.33     0.08     0.08     0.33        1    56.98
  Conduit11        CIRCULAR             0.33     0.08     0.08     0.33        1    57.00
  Conduit12        CIRCULAR             0.33     0.08     0.08     0.33        1    56.90
  Conduit13        CIRCULAR             0.33     0.08     0.08     0.33        1    57.14
  Conduit14        CIRCULAR             0.33     0.08     0.08     0.33        1   156.42
  Conduit15        CIRCULAR             0.33     0.08     0.08     0.33        1    57.76
  Conduit16        CIRCULAR             0.33     0.08     0.08     0.33        1    57.09
  Conduit17        CIRCULAR             0.33     0.08     0.08     0.33        1    56.83
  Conduit18        CIRCULAR             0.33     0.08     0.08     0.33        1   110.49
  Conduit19        CIRCULAR             0.33     0.08     0.08     0.33        1    87.87
  Conduit20        CIRCULAR             0.33     0.08     0.08     0.33        1    57.44
  Conduit21        CIRCULAR             0.33     0.08     0.08     0.33        1   176.85
  Conduit22        CIRCULAR             0.33     0.08     0.08     0.33        1    57.13
  Conduit23        CIRCULAR             0.33     0.08     0.08     0.33        1   109.50
  Conduit24        CIRCULAR             0.33     0.08     0.08     0.33        1    57.17
  Conduit25        CIRCULAR             0.33     0.08     0.08     0.33        1    57.04
  Conduit26        CIRCULAR             0.33     0.08     0.08     0.33        1    56.98
  Conduit27        CIRCULAR             0.33     0.08     0.08     0.33        1   104.91
  Conduit28        CIRCULAR             0.33     0.08     0.08     0.33        1   123.05
  Conduit29        CIRCULAR             0.33     0.08     0.08     0.33        1    57.72
  Conduit30        CIRCULAR             0.33     0.08     0.08     0.33        1    57.38
  Conduit31        CIRCULAR             0.33     0.08     0.08     0.33        1   108.08
  Conduit32        CIRCULAR             0.33     0.08     0.08     0.33        1    57.15
  Conduit33        CIRCULAR             0.33     0.08     0.08     0.33        1    57.62
  Conduit34        CIRCULAR             0.33     0.08     0.08     0.33        1    57.03
  Conduit35        CIRCULAR             0.33     0.08     0.08     0.33        1    57.06
  Conduit36        CIRCULAR             0.33     0.08     0.08     0.33        1    57.62
  Conduit37        CIRCULAR             0.33     0.08     0.08     0.33        1    57.68
  Conduit38        CIRCULAR             0.33     0.08     0.08     0.33        1    57.60
  Conduit39        CIRCULAR             0.33     0.08     0.08     0.33        1    57.02
  Conduit40        CIRCULAR             0.33     0.08     0.08     0.33        1    57.30
  Conduit41        CIRCULAR             0.33     0.08     0.08     0.33        1    57.34
  Conduit42        CIRCULAR             0.33     0.08     0.08     0.33        1    72.54
  Conduit43        CIRCULAR             0.33     0.08     0.08     0.33        1    57.58
  Conduit44        CIRCULAR             0.33     0.08     0.08     0.33        1    57.33
  Conduit45        CIRCULAR             0.33     0.08     0.08     0.33        1    57.55
  Conduit46        CIRCULAR             0.33     0.08     0.08     0.33        1   188.87
  Conduit47        CIRCULAR             0.33     0.08     0.08     0.33        1    57.49
  Conduit48        CIRCULAR             0.33     0.08     0.08     0.33        1   130.00
  Conduit49        CIRCULAR             0.33     0.08     0.08     0.33        1    57.08
  Conduit50        CIRCULAR             0.33     0.08     0.08     0.33        1    57.68
  Conduit51        CIRCULAR             0.33     0.08     0.08     0.33        1    56.85
  Conduit52        CIRCULAR             0.33     0.08     0.08     0.33        1    56.79
  Conduit53        CIRCULAR             0.33     0.08     0.08     0.33        1    56.89
  Conduit54        CIRCULAR             0.33     0.08     0.08     0.33        1    57.51
  Conduit55        CIRCULAR             0.33     0.08     0.08     0.33        1    56.85
  Conduit56        CIRCULAR             0.33     0.08     0.08     0.33        1    56.82
  Conduit57        CIRCULAR             0.33     0.08     0.08     0.33        1    56.84
  Conduit58        CIRCULAR             0.33     0.08     0.08     0.33        1    56.84
  Conduit59        CIRCULAR             0.33     0.08     0.08     0.33        1    57.27
  Conduit60        CIRCULAR             0.33     0.08     0.08     0.33        1   236.11
  Conduit61        CIRCULAR             0.33     0.08     0.08     0.33        1   153.99
  Conduit62        CIRCULAR             0.33     0.08     0.08     0.33        1    57.13
  Conduit63        CIRCULAR             0.33     0.08     0.08     0.33        1   553.32
  Conduit64        CIRCULAR             0.33     0.08     0.08     0.33        1    57.55
  Conduit65        CIRCULAR             0.33     0.08     0.08     0.33        1    57.33
  Conduit66        CIRCULAR             0.33     0.08     0.08     0.33        1    57.55
  Conduit67        CIRCULAR             0.33     0.08     0.08     0.33        1   140.49
  Conduit68        CIRCULAR             0.33     0.08     0.08     0.33        1    56.81
  Conduit69        CIRCULAR             0.33     0.08     0.08     0.33        1    57.38
  Conduit70        CIRCULAR             0.33     0.08     0.08     0.33        1    56.92
  Conduit71        CIRCULAR             0.33     0.08     0.08     0.33        1    56.85
  Conduit72        CIRCULAR             0.33     0.08     0.08     0.33        1    56.81
  Conduit73        CIRCULAR             0.33     0.08     0.08     0.33        1    56.81
  Conduit74        CIRCULAR             0.33     0.08     0.08     0.33        1    57.54
  Conduit75        CIRCULAR             0.33     0.08     0.08     0.33        1    56.98
  Conduit76        CIRCULAR             0.33     0.08     0.08     0.33        1    57.62
  Conduit77        CIRCULAR             0.33     0.08     0.08     0.33        1    57.11
  Conduit78        CIRCULAR             0.33     0.08     0.08     0.33        1    57.71
  Conduit79        CIRCULAR             0.33     0.08     0.08     0.33        1   217.03
  Conduit80        CIRCULAR             0.33     0.08     0.08     0.33        1    33.94
  Conduit81        CIRCULAR             0.33     0.08     0.08     0.33        1    57.06
  Conduit82        CIRCULAR             0.33     0.08     0.08     0.33        1    57.21
  Conduit83        CIRCULAR             0.33     0.08     0.08     0.33        1    57.19
  Conduit84        CIRCULAR             0.33     0.08     0.08     0.33        1    57.38
  Conduit85        CIRCULAR             0.33     0.08     0.08     0.33        1    56.84
  Conduit86        CIRCULAR             0.33     0.08     0.08     0.33        1    89.57
  Conduit87        CIRCULAR             0.33     0.08     0.08     0.33        1   214.41
  Conduit88        CIRCULAR             0.33     0.08     0.08     0.33        1    57.42
  Conduit89        CIRCULAR             0.33     0.08     0.08     0.33        1    56.88
  Conduit90        CIRCULAR             0.33     0.08     0.08     0.33        1    57.11
  Conduit91        CIRCULAR             0.33     0.08     0.08     0.33        1    56.91
  Conduit92        CIRCULAR             0.33     0.08     0.08     0.33        1    95.13
  Conduit93        CIRCULAR             0.33     0.08     0.08     0.33        1    57.27
  Conduit95        CIRCULAR             0.33     0.08     0.08     0.33        1    56.83
  Conduit96        CIRCULAR             0.33     0.08     0.08     0.33        1    98.50
  Conduit97        CIRCULAR             0.33     0.08     0.08     0.33        1    57.38
  Conduit98        CIRCULAR             0.33     0.08     0.08     0.33        1   119.70
  Conduit99        CIRCULAR             0.33     0.08     0.08     0.33        1   129.34
  Conduit100       CIRCULAR             0.33     0.08     0.08     0.33        1   195.12
  Conduit101       CIRCULAR             0.33     0.08     0.08     0.33        1   465.09
  Conduit102       CIRCULAR             0.33     0.08     0.08     0.33        1    57.17
  Conduit105       CIRCULAR             0.33     0.08     0.08     0.33        1    99.98
  Conduit106       CIRCULAR             0.33     0.08     0.08     0.33        1    54.90
  Conduit107       CIRCULAR             0.33     0.08     0.08     0.33        1    57.84
  AdminToOut1      CIRCULAR             0.30     0.07     0.07     0.30        1   257.76
  AdminToOut2      CIRCULAR             0.30     0.07     0.07     0.30        1   257.76
  AdminToOut3      CIRCULAR             0.30     0.07     0.07     0.30        1   231.88
  AdminToOut4      CIRCULAR             0.30     0.07     0.07     0.30        1   333.03
  AdminToOut5      CIRCULAR             0.30     0.07     0.07     0.30        1   269.78
  
  
  *************
  Shape Summary
  *************

  Shape storageCurve1
  Area:  
              0.0172     0.0345     0.0519     0.0695     0.0871 
              0.1049     0.1228     0.1408     0.1589     0.1771 
              0.1955     0.2139     0.2325     0.2512     0.2700 
              0.2889     0.3079     0.3271     0.3463     0.3657 
              0.3852     0.4048     0.4245     0.4443     0.4643 
              0.4843     0.5045     0.5248     0.5452     0.5657 
              0.5863     0.6071     0.6279     0.6489     0.6700 
              0.6912     0.7125     0.7339     0.7555     0.7771 
              0.7989     0.8208     0.8428     0.8649     0.8871 
              0.9095     0.9319     0.9545     0.9772     1.0000 
  Hrad:  
              0.0460     0.0916     0.1369     0.1819     0.2265 
              0.2708     0.3148     0.3585     0.4019     0.4450 
              0.4878     0.5303     0.5726     0.6145     0.6563 
              0.6977     0.7389     0.7798     0.8205     0.8610 
              0.9012     0.9412     0.9809     1.0205     1.0598 
              1.0989     1.1378     1.1764     1.2149     1.2532 
              1.2912     1.3291     1.3668     1.4043     1.4416 
              1.4787     1.5157     1.5524     1.5890     1.6255 
              1.6618     1.6979     1.7338     1.7696     1.8052 
              1.8407     1.8760     1.9112     1.9462     1.0000 
  Width: 
              0.7550     0.7600     0.7650     0.7700     0.7750 
              0.7800     0.7850     0.7900     0.7950     0.8000 
              0.8050     0.8100     0.8150     0.8200     0.8250 
              0.8300     0.8350     0.8400     0.8450     0.8500 
              0.8550     0.8600     0.8650     0.8700     0.8750 
              0.8800     0.8850     0.8900     0.8950     0.9000 
              0.9050     0.9100     0.9150     0.9200     0.9250 
              0.9300     0.9350     0.9400     0.9450     0.9500 
              0.9550     0.9600     0.9650     0.9700     0.9750 
              0.9800     0.9850     0.9900     0.9950     1.0000 
  
  
  
  *********************
  Control Actions Taken
  *********************

  
  **************************        Volume         Depth
  Runoff Quantity Continuity     hectare-m            mm
  **************************     ---------       -------
  Total Precipitation ......         0.072        20.091
  Evaporation Loss .........         0.000         0.000
  Infiltration Loss ........         0.037        10.339
  Surface Runoff ...........         0.033         9.042
  Final Surface Storage ....         0.003         0.714
  Continuity Error (%) .....        -0.015
  
  
  **************************        Volume        Volume
  Flow Routing Continuity        hectare-m      10^6 ltr
  **************************     ---------     ---------
  Dry Weather Inflow .......         0.000         0.000
  Wet Weather Inflow .......         0.033         0.326
  Groundwater Inflow .......         0.000         0.000
  RDII Inflow ..............         0.000         0.000
  External Inflow ..........         0.000         0.000
  External Outflow .........         0.032         0.318
  Internal Outflow .........         0.000         0.004
  Evaporation Loss .........         0.000         0.000
  Exfiltration Loss ........         0.000         0.000
  Initial Stored Volume ....         0.000         0.000
  Final Stored Volume ......         0.000         0.000
  Continuity Error (%) .....         1.293
  
  
  ********************************
  Highest Flow Instability Indexes
  ********************************
  Link AdminToOut1 (2)
  Link Conduit105 (1)
  Link AdminToOut3 (1)
  Link AdminToOut4 (1)
  Link Conduit50 (1)
  
  
  *************************
  Routing Time Step Summary
  *************************
  Minimum Time Step           :    15.00 sec
  Average Time Step           :    15.00 sec
  Maximum Time Step           :    15.00 sec
  Percent in Steady State     :     0.00
  Average Iterations per Step :     1.67
  Percent Not Converging      :     0.00
  
  
  ***************************
  Subcatchment Runoff Summary
  ***************************
  
  --------------------------------------------------------------------------------------------------------
                            Total      Total      Total      Total      Total       Total     Peak  Runoff
                           Precip      Runon       Evap      Infil     Runoff      Runoff   Runoff   Coeff
  Subcatchment                 mm         mm         mm         mm         mm    10^6 ltr      LPS
  --------------------------------------------------------------------------------------------------------
  Sub0                      20.09       0.00       0.00      11.24       8.21        0.01     4.34   0.408
  Sub1                      20.09       0.00       0.00      14.84       4.87        0.00     2.50   0.243
  Sub2                      20.09       0.00       0.00       5.92      13.14        0.00     3.10   0.654
  Sub3                      20.09       0.00       0.00       0.00      18.63        0.00     2.94   0.927
  Sub4                      20.09       0.00       0.00       0.00      18.61        0.00     1.03   0.926
  Sub5                      20.09       0.00       0.00       8.36      10.89        0.00     1.50   0.542
  Sub6                      20.09       0.00       0.00       0.00      18.62        0.00     0.83   0.927
  Sub7                      20.09       0.00       0.00       0.01      18.62        0.00     0.89   0.927
  Sub8                      20.09       0.00       0.00       0.01      18.61        0.00     0.91   0.926
  Sub9                      20.09       0.00       0.00       4.70      14.27        0.01     6.64   0.710
  Sub10                     20.09       0.00       0.00      15.89       3.90        0.00     3.15   0.194
  Sub11                     20.09       0.00       0.00       2.03      16.74        0.00     2.89   0.833
  Sub12                     20.09       0.00       0.00       3.45      15.43        0.01     4.22   0.768
  Sub13                     20.09       0.00       0.00      17.62       2.29        0.00     1.78   0.114
  Sub14                     20.09       0.00       0.00      16.77       3.08        0.00     0.89   0.153
  Sub15                     20.09       0.00       0.00       0.02      18.61        0.00     1.08   0.926
  Sub16                     20.09       0.00       0.00       0.00      18.62        0.00     1.16   0.927
  Sub17                     20.09       0.00       0.00       2.08      16.67        0.01     7.23   0.830
  Sub18                     20.09       0.00       0.00       6.22      12.87        0.00     2.67   0.640
  Sub19                     20.09       0.00       0.00       8.98      10.31        0.00     2.68   0.513
  Sub20                     20.09       0.00       0.00       5.19      13.83        0.00     2.28   0.688
  Sub21                     20.09       0.00       0.00      13.43       6.19        0.00     1.87   0.308
  Sub22                     20.09       0.00       0.00       0.00      18.62        0.00     1.15   0.927
  Sub23                     20.09       0.00       0.00       6.07      12.99        0.01     4.80   0.647
  Sub24                     20.09       0.00       0.00      12.67       6.89        0.00     1.06   0.343
  Sub25                     20.09       0.00       0.00       2.29      16.48        0.01     7.26   0.820
  Sub26                     20.09       0.00       0.00      11.92       7.58        0.00     1.50   0.377
  Sub27                     20.09       0.00       0.00       5.59      13.45        0.01     4.81   0.669
  Sub28                     20.09       0.00       0.00      12.51       7.03        0.00     2.20   0.350
  Sub29                     20.09       0.00       0.00       4.66      14.31        0.00     2.55   0.712
  Sub30                     20.09       0.00       0.00       4.27      14.67        0.01     5.02   0.730
  Sub31                     20.09       0.00       0.00      18.40       1.57        0.00     0.29   0.078
  Sub32                     20.09       0.00       0.00      15.67       4.10        0.00     2.22   0.204
  Sub33                     20.09       0.00       0.00       8.64      10.61        0.01     5.46   0.528
  Sub34                     20.09       0.00       0.00      13.51       6.10        0.00     2.89   0.304
  Sub35                     20.09       0.00       0.00       7.35      11.82        0.01     3.78   0.588
  Sub36                     20.09       0.00       0.00      16.62       3.23        0.00     2.70   0.161
  Sub37                     20.09       0.00       0.00      13.73       5.91        0.00     2.22   0.294
  Sub38                     20.09       0.00       0.00      11.71       7.77        0.00     1.77   0.387
  Sub39                     20.09       0.00       0.00      15.05       4.68        0.00     2.99   0.233
  Sub40                     20.09       0.00       0.00       9.08      10.22        0.00     1.31   0.509
  Sub41                     20.09       0.00       0.00       9.00      10.29        0.00     1.84   0.512
  Sub42                     20.09       0.00       0.00       9.10      10.20        0.00     1.96   0.507
  Sub43                     20.09       0.00       0.00       6.29      12.81        0.00     1.13   0.638
  Sub44                     20.09       0.00       0.00       1.77      16.96        0.01     7.06   0.844
  Sub45                     20.09       0.00       0.00       5.81      13.24        0.00     2.48   0.659
  Sub46                     20.09       0.00       0.00       9.14      10.16        0.00     1.29   0.506
  Sub47                     20.09       0.00       0.00      14.01       5.64        0.01     3.52   0.281
  Sub48                     20.09       0.00       0.00      15.87       3.92        0.00     1.01   0.195
  Sub49                     20.09       0.00       0.00       5.86      13.20        0.00     1.01   0.657
  Sub50                     20.09       0.00       0.00      15.20       4.54        0.00     1.58   0.226
  Sub51                     20.09       0.00       0.00      14.73       4.97        0.00     0.96   0.248
  Sub52                     20.09       0.00       0.00       5.39      13.63        0.00     2.71   0.678
  Sub53                     20.09       0.00       0.00       7.39      11.78        0.00     1.71   0.586
  Sub54                     20.09       0.00       0.00       2.09      16.66        0.01     7.08   0.829
  Sub55                     20.09       0.00       0.00      15.52       4.25        0.00     2.32   0.211
  Sub56                     20.09       0.00       0.00      14.00       5.65        0.00     1.67   0.281
  Sub57                     20.09       0.00       0.00       2.32      16.46        0.01     7.27   0.819
  Sub58                     20.09       0.00       0.00       2.31      16.46        0.01     7.25   0.819
  Sub59                     20.09       0.00       0.00       7.00      12.15        0.00     2.62   0.605
  Sub60                     20.09       0.00       0.00      12.01       7.49        0.01     3.85   0.373
  Sub61                     20.09       0.00       0.00       5.70      13.34        0.00     1.52   0.664
  Sub62                     20.09       0.00       0.00      16.98       2.89        0.00     2.67   0.144
  Sub63                     20.09       0.00       0.00      16.55       3.28        0.00     3.01   0.163
  Sub64                     20.09       0.00       0.00      14.26       5.42        0.00     0.67   0.270
  Sub65                     20.09       0.00       0.00       0.02      18.61        0.00     1.30   0.926
  Sub66                     20.09       0.00       0.00      15.12       4.62        0.00     0.68   0.230
  Sub67                     20.09       0.00       0.00       7.28      11.88        0.00     2.14   0.591
  Sub68                     20.09       0.00       0.00       0.00      18.61        0.00     1.94   0.926
  Sub69                     20.09       0.00       0.00      14.09       5.57        0.00     1.75   0.277
  Sub70                     20.09       0.00       0.00       0.00      18.63        0.00     1.51   0.927
  Sub71                     20.09       0.00       0.00      11.68       7.80        0.00     2.31   0.388
  Sub72                     20.09       0.00       0.00       5.45      13.58        0.00     2.56   0.676
  Sub73                     20.09       0.00       0.00       5.95      13.11        0.00     2.53   0.653
  Sub74                     20.09       0.00       0.00      12.97       6.61        0.00     1.82   0.329
  Sub75                     20.09       0.00       0.00      13.03       6.55        0.00     1.29   0.326
  Sub76                     20.09       0.00       0.00      11.54       7.94        0.00     1.71   0.395
  Sub77                     20.09       0.00       0.00      14.19       5.48        0.00     1.42   0.273
  Sub78                     20.09       0.00       0.00       8.04      11.17        0.00     1.49   0.556
  Sub79                     20.09       0.00       0.00      10.07       9.30        0.01     4.27   0.463
  Sub80                     20.09       0.00       0.00      10.25       9.13        0.00     0.77   0.455
  Sub81                     20.09       0.00       0.00       1.72      17.03        0.01     4.39   0.848
  Sub82                     20.09       0.00       0.00      15.87       3.92        0.00     1.67   0.195
  
  
  ******************
  Node Depth Summary
  ******************
  
  ---------------------------------------------------------------------
                                 Average  Maximum  Maximum  Time of Max
                                   Depth    Depth      HGL   Occurrence
  Node                 Type       Meters   Meters   Meters  days hr:min
  ---------------------------------------------------------------------
  AdminWeLL0           JUNCTION     0.03     0.09     0.55     0  01:03
  AdminWeLL1           JUNCTION     0.04     0.13     1.13     0  01:02
  AdminWeLL2           JUNCTION     0.03     0.09     0.43     0  01:02
  AdminWeLL3           JUNCTION     0.05     0.14     0.56     0  01:09
  AdminWeLL4           JUNCTION     0.01     0.04     0.46     0  01:01
  Node0                JUNCTION     0.00     0.00     3.90     0  01:01
  Node1                JUNCTION     0.00     0.01     3.91     0  01:01
  Node2                JUNCTION     0.01     0.03     3.60     0  01:01
  Node3                JUNCTION     0.01     0.03     3.60     0  01:02
  Node4                JUNCTION     0.01     0.03     3.60     0  01:01
  Node5                JUNCTION     0.01     0.02     3.59     0  01:01
  WeLL0                JUNCTION     0.03     0.12     1.32     0  01:02
  WeLL1                JUNCTION     0.02     0.05     1.55     0  01:01
  WeLL2                JUNCTION     0.02     0.06     1.76     0  01:01
  WeLL3                JUNCTION     0.02     0.06     1.72     0  01:01
  WeLL4                JUNCTION     0.02     0.08     1.70     0  01:01
  WeLL5                JUNCTION     0.02     0.08     1.66     0  01:02
  WeLL6                JUNCTION     0.03     0.09     1.56     0  01:02
  WeLL7                JUNCTION     0.03     0.09     1.51     0  01:02
  WeLL8                JUNCTION     0.06     0.23     1.25     0  01:03
  WeLL9                JUNCTION     0.01     0.04     1.54     0  01:01
  WeLL10               JUNCTION     0.04     0.12     1.38     0  01:03
  WeLL11               JUNCTION     0.02     0.06     1.76     0  01:01
  WeLL12               JUNCTION     0.02     0.06     1.73     0  01:01
  WeLL13               JUNCTION     0.03     0.09     1.72     0  01:01
  WeLL14               JUNCTION     0.03     0.09     1.68     0  01:02
  WeLL15               JUNCTION     0.03     0.12     1.49     0  01:02
  WeLL16               JUNCTION     0.02     0.06     1.56     0  01:01
  WeLL17               JUNCTION     0.00     0.00     1.50     0  00:00
  WeLL18               JUNCTION     0.00     0.00     1.44     0  00:00
  WeLL19               JUNCTION     0.02     0.07     1.47     0  01:01
  WeLL20               JUNCTION     0.03     0.12     1.34     0  01:02
  WeLL21               JUNCTION     0.03     0.12     1.30     0  01:02
  WeLL22               JUNCTION     0.04     0.14     1.24     0  01:03
  WeLL23               JUNCTION     0.04     0.14     1.21     0  01:03
  WeLL24               JUNCTION     0.06     0.23     1.20     0  01:03
  WeLL25               JUNCTION     0.02     0.06     1.56     0  01:01
  WeLL26               JUNCTION     0.04     0.12     1.41     0  01:03
  WeLL27               JUNCTION     0.03     0.09     1.47     0  01:02
  WeLL28               JUNCTION     0.02     0.05     1.75     0  01:01
  WeLL29               JUNCTION     0.00     0.00     1.46     0  00:00
  WeLL30               JUNCTION     0.02     0.06     1.49     0  01:01
  WeLL31               JUNCTION     0.02     0.06     1.45     0  01:01
  WeLL32               JUNCTION     0.03     0.10     1.34     0  01:02
  WeLL33               JUNCTION     0.01     0.04     1.74     0  01:01
  WeLL34               JUNCTION     0.01     0.04     1.71     0  01:01
  WeLL35               JUNCTION     0.03     0.09     1.71     0  01:02
  WeLL36               JUNCTION     0.03     0.09     1.67     0  01:02
  WeLL37               JUNCTION     0.03     0.10     1.63     0  01:02
  WeLL38               JUNCTION     0.03     0.10     1.65     0  01:02
  WeLL39               JUNCTION     0.03     0.09     1.59     0  01:01
  WeLL40               JUNCTION     0.03     0.09     1.57     0  01:01
  WeLL41               JUNCTION     0.03     0.09     1.53     0  01:01
  WeLL42               JUNCTION     0.03     0.12     1.54     0  01:02
  WeLL43               JUNCTION     0.06     0.22     1.17     0  01:03
  WeLL44               JUNCTION     0.05     0.18     1.15     0  01:03
  WeLL45               JUNCTION     0.05     0.17     1.17     0  01:03
  WeLL46               JUNCTION     0.05     0.17     1.23     0  01:03
  WeLL47               JUNCTION     0.04     0.15     1.24     0  01:03
  WeLL48               JUNCTION     0.04     0.13     1.31     0  01:02
  WeLL49               JUNCTION     0.02     0.05     1.52     0  01:01
  WeLL50               JUNCTION     0.02     0.05     1.49     0  01:01
  WeLL51               JUNCTION     0.03     0.11     1.52     0  01:02
  WeLL52               JUNCTION     0.03     0.11     1.46     0  01:02
  WeLL53               JUNCTION     0.01     0.04     1.74     0  01:01
  WeLL54               JUNCTION     0.01     0.04     1.71     0  01:01
  WeLL55               JUNCTION     0.03     0.09     1.71     0  01:02
  WeLL56               JUNCTION     0.04     0.12     1.45     0  01:03
  WeLL57               JUNCTION     0.03     0.12     1.55     0  01:02
  WeLL58               JUNCTION     0.04     0.14     1.28     0  01:02
  WeLL59               JUNCTION     0.01     0.04     1.68     0  01:01
  WeLL60               JUNCTION     0.03     0.09     1.70     0  01:02
  WeLL61               JUNCTION     0.03     0.08     1.67     0  01:02
  WeLL62               JUNCTION     0.03     0.09     1.63     0  01:02
  WeLL63               JUNCTION     0.03     0.08     1.65     0  01:02
  WeLL64               JUNCTION     0.01     0.04     1.74     0  01:01
  WeLL65               JUNCTION     0.01     0.04     1.70     0  01:01
  WeLL66               JUNCTION     0.02     0.06     1.68     0  01:02
  WeLL67               JUNCTION     0.03     0.09     1.58     0  01:03
  WeLL68               JUNCTION     0.02     0.06     1.76     0  01:01
  WeLL69               JUNCTION     0.02     0.06     1.75     0  01:01
  WeLL70               JUNCTION     0.04     0.14     1.42     0  01:01
  WeLL71               JUNCTION     0.00     0.00     1.70     0  00:00
  WeLL72               JUNCTION     0.01     0.03     1.65     0  01:01
  WeLL73               JUNCTION     0.01     0.04     1.54     0  01:01
  WeLL74               JUNCTION     0.02     0.07     1.53     0  01:01
  WeLL75               JUNCTION     0.04     0.14     1.37     0  01:02
  WeLL76               JUNCTION     0.02     0.06     1.56     0  01:01
  WeLL77               JUNCTION     0.02     0.05     1.51     0  01:01
  WeLL78               JUNCTION     0.02     0.08     1.52     0  01:02
  WeLL79               JUNCTION     0.02     0.08     1.49     0  01:02
  WeLL80               JUNCTION     0.03     0.10     1.10     0  01:02
  WeLL81               JUNCTION     0.00     0.00     1.45     0  00:00
  WeLL82               JUNCTION     0.00     0.00     1.50     0  00:00
  WeLL83               JUNCTION     0.03     0.10     1.06     0  01:02
  WeLL84               JUNCTION     0.04     0.13     0.98     0  01:01
  WeLL85               JUNCTION     0.04     0.13     0.94     0  01:02
  WeLL86               JUNCTION     0.04     0.13     1.10     0  01:01
  WeLL87               JUNCTION     0.03     0.10     1.10     0  01:01
  WeLL88               JUNCTION     0.04     0.13     0.90     0  01:02
  WeLL89               JUNCTION     0.04     0.15     1.06     0  01:02
  WeLL90               JUNCTION     0.04     0.15     1.03     0  01:02
  WeLL91               JUNCTION     0.04     0.13     0.87     0  01:02
  WeLL92               JUNCTION     0.01     0.02     1.52     0  01:01
  WeLL93               JUNCTION     0.03     0.12     1.46     0  01:02
  WeLL94               JUNCTION     0.04     0.12     1.32     0  01:03
  WeLL95               JUNCTION     0.04     0.13     1.07     0  01:02
  WeLL96               JUNCTION     0.97     1.00     1.91     0  00:06
  WeLL97               JUNCTION     0.00     0.00     0.86     0  00:00
  WeLL100              JUNCTION     0.06     0.22     1.13     0  01:03
  WeLL102              JUNCTION     0.11     1.00     1.88     0  01:00
  WeLL103              JUNCTION     0.08     0.33     1.20     0  01:01
  WeLL104              JUNCTION     0.06     0.19     1.00     0  01:08
  WeLL105              JUNCTION     0.01     0.04     0.81     0  01:01
  WeLL106              JUNCTION     0.06     0.19     0.91     0  01:08
  WeLL107              JUNCTION     0.02     0.06     1.65     0  01:02
  WeLL108              JUNCTION     0.00     0.00     1.67     0  00:00
  Outfall1             OUTFALL      0.03     0.09     0.09     0  01:03
  Outfall2             OUTFALL      0.01     0.03     0.03     0  01:02
  Outfall3             OUTFALL      0.03     0.08     0.08     0  01:09
  Outfall4             OUTFALL      0.03     0.09     0.09     0  01:02
  Outfall5             OUTFALL      0.02     0.07     0.37     0  01:02
  Storage0             STORAGE      0.00     0.00     1.00     0  00:00
  Storage1             STORAGE      0.00     0.00     2.00     0  00:00
  Storage2             STORAGE      0.00     0.00     2.00     0  00:00
  Storage3             STORAGE      0.00     0.00     0.00     0  00:00
  Storage4             STORAGE      0.00     0.00     2.00     0  00:00
  Storage5             STORAGE      0.00     0.00     0.00     0  00:00
  Storage6             STORAGE      0.00     0.00     0.00     0  00:00
  
  
  *******************
  Node Inflow Summary
  *******************
  
  -------------------------------------------------------------------------------------------------
                                  Maximum  Maximum                  Lateral       Total        Flow
                                  Lateral    Total  Time of Max      Inflow      Inflow     Balance
                                   Inflow   Inflow   Occurrence      Volume      Volume       Error
  Node                 Type           LPS      LPS  days hr:min    10^6 ltr    10^6 ltr     Percent
  -------------------------------------------------------------------------------------------------
  AdminWeLL0           JUNCTION      0.00    49.17     0  01:03           0      0.0793       0.000
  AdminWeLL1           JUNCTION      0.00    38.18     0  01:02           0      0.0592       0.000
  AdminWeLL2           JUNCTION      0.00    44.01     0  01:02           0      0.0672       0.000
  AdminWeLL3           JUNCTION      0.00    35.82     0  01:09           0       0.074       0.000
  AdminWeLL4           JUNCTION      0.00     4.00     0  01:01           0     0.00619       0.000
  Node0                JUNCTION      0.29     0.29     0  01:01    0.000396    0.000396       0.000
  Node1                JUNCTION      1.67     1.67     0  01:01     0.00232     0.00232       0.000
  Node2                JUNCTION      5.46     5.46     0  01:01     0.00851     0.00851       0.000
  Node3                JUNCTION      4.80     4.80     0  01:02     0.00759     0.00759       0.000
  Node4                JUNCTION      5.12     5.12     0  01:01     0.00728     0.00728      -0.000
  Node5                JUNCTION      3.78     3.78     0  01:01     0.00584     0.00584       0.000
  WeLL0                JUNCTION      0.00    15.60     0  01:02           0      0.0232       0.000
  WeLL1                JUNCTION      3.56     3.56     0  01:01     0.00525     0.00525       0.000
  WeLL2                JUNCTION      4.35     4.35     0  01:01     0.00631     0.00631       0.000
  WeLL3                JUNCTION      0.00     4.29     0  01:01           0     0.00629       0.000
  WeLL4                JUNCTION      2.56     6.77     0  01:01     0.00382      0.0101       0.000
  WeLL5                JUNCTION      0.00     6.75     0  01:02           0      0.0101       0.000
  WeLL6                JUNCTION      0.00    10.57     0  01:02           0      0.0158       0.000
  WeLL7                JUNCTION      0.00    10.46     0  01:02           0      0.0158       0.000
  WeLL8                JUNCTION      5.68    47.20     0  01:03     0.00813      0.0758       0.000
  WeLL9                JUNCTION      4.01     4.01     0  01:01     0.00564     0.00564       0.000
  WeLL10               JUNCTION      0.00    17.29     0  01:03           0      0.0274       0.000
  WeLL11               JUNCTION      4.94     4.94     0  01:01     0.00704     0.00704       0.000
  WeLL12               JUNCTION      0.00     4.86     0  01:01           0     0.00702       0.000
  WeLL13               JUNCTION      5.52    10.13     0  01:01     0.00799       0.015       0.000
  WeLL14               JUNCTION      0.00    10.11     0  01:02           0       0.015       0.000
  WeLL15               JUNCTION      0.00    15.65     0  01:02           0      0.0233       0.000
  WeLL16               JUNCTION      5.64     5.64     0  01:01     0.00843     0.00843       0.000
  WeLL17               JUNCTION      0.00     0.00     0  00:00           0           0       0.000 ltr
  WeLL18               JUNCTION      0.00     0.00     0  00:00           0           0       0.000 ltr
  WeLL19               JUNCTION      0.00     5.54     0  01:01           0      0.0084       0.000
  WeLL20               JUNCTION      0.00    15.61     0  01:02           0      0.0232       0.000
  WeLL21               JUNCTION      0.00    15.56     0  01:02           0      0.0232       0.000
  WeLL22               JUNCTION      0.00    22.48     0  01:03           0      0.0349       0.000
  WeLL23               JUNCTION      0.00    22.42     0  01:03           0      0.0348       0.000
  WeLL24               JUNCTION      2.67    49.12     0  01:03      0.0037      0.0793       0.000
  WeLL25               JUNCTION      4.06     4.06     0  01:01     0.00576     0.00576       0.000
  WeLL26               JUNCTION      0.00    17.31     0  01:03           0      0.0274       0.000
  WeLL27               JUNCTION      0.00    10.42     0  01:02           0      0.0157       0.000
  WeLL28               JUNCTION      7.41     7.41     0  01:01      0.0108      0.0108       0.000
  WeLL29               JUNCTION      0.00     0.00     0  00:00           0           0       0.000 ltr
  WeLL30               JUNCTION      4.99     4.99     0  01:01     0.00725     0.00725       0.000
  WeLL31               JUNCTION      0.00     4.90     0  01:01           0     0.00723       0.000
  WeLL32               JUNCTION      1.13    18.92     0  01:02     0.00162      0.0298       0.000
  WeLL33               JUNCTION      1.58     1.58     0  01:01     0.00218     0.00218       0.000
  WeLL34               JUNCTION      0.00     1.55     0  01:01           0     0.00218       0.000
  WeLL35               JUNCTION      7.06     8.57     0  01:02      0.0116      0.0138       0.000
  WeLL36               JUNCTION      0.00     8.52     0  01:02           0      0.0138       0.000
  WeLL37               JUNCTION      1.51    13.11     0  01:02     0.00231      0.0211       0.000
  WeLL38               JUNCTION      3.52    11.66     0  01:02     0.00505      0.0188       0.000
  WeLL39               JUNCTION      2.70    10.02     0  01:01      0.0038      0.0146       0.000
  WeLL40               JUNCTION      0.00     9.98     0  01:01           0      0.0146       0.000
  WeLL41               JUNCTION      0.00     9.93     0  01:01           0      0.0145       0.000
  WeLL42               JUNCTION      0.00    17.09     0  01:02           0      0.0263       0.000
  WeLL43               JUNCTION      0.00    47.16     0  01:03           0      0.0763       0.000
  WeLL44               JUNCTION      1.06    31.14     0  01:03     0.00147      0.0501       0.000
  WeLL45               JUNCTION      1.08    30.35     0  01:03     0.00166      0.0487       0.000
  WeLL46               JUNCTION      0.00    29.49     0  01:03           0      0.0471       0.000
  WeLL47               JUNCTION      0.00    24.83     0  01:03           0      0.0396       0.000
  WeLL48               JUNCTION      1.16    19.59     0  01:02     0.00182      0.0312       0.000
  WeLL49               JUNCTION      0.00     3.52     0  01:01           0     0.00524       0.000
  WeLL50               JUNCTION      0.00     3.51     0  01:01           0     0.00522       0.000
  WeLL51               JUNCTION     10.95    14.41     0  01:02      0.0176      0.0228       0.000
  WeLL52               JUNCTION      2.51    16.72     0  01:02     0.00379      0.0265       0.000
  WeLL53               JUNCTION      1.68     1.68     0  01:01     0.00228     0.00228       0.000
  WeLL54               JUNCTION      0.00     1.65     0  01:01           0     0.00227       0.000
  WeLL55               JUNCTION      7.08     8.70     0  01:02      0.0116      0.0139       0.000
  WeLL56               JUNCTION      7.27    17.32     0  01:03      0.0118      0.0275       0.000
  WeLL57               JUNCTION      7.26    17.12     0  01:02      0.0118      0.0263       0.000
  WeLL58               JUNCTION      7.25    22.54     0  01:02      0.0119       0.035       0.000
  WeLL59               JUNCTION      0.00     1.63     0  01:01           0     0.00227       0.000
  WeLL60               JUNCTION      0.00     8.69     0  01:02           0      0.0139       0.000
  WeLL61               JUNCTION      0.00     8.62     0  01:02           0      0.0138       0.000
  WeLL62               JUNCTION      0.00     8.60     0  01:02           0      0.0138       0.000
  WeLL63               JUNCTION      0.00     8.62     0  01:02           0      0.0138       0.000
  WeLL64               JUNCTION      2.27     2.27     0  01:01     0.00315     0.00315       0.000
  WeLL65               JUNCTION      0.00     2.18     0  01:01           0     0.00314       0.000
  WeLL66               JUNCTION      2.71     4.84     0  01:02     0.00415     0.00728       0.000
  WeLL67               JUNCTION      4.59    17.53     0  01:02     0.00703       0.028       0.000
  WeLL68               JUNCTION      4.82     4.82     0  01:01     0.00682     0.00682       0.000
  WeLL69               JUNCTION      0.00     4.79     0  01:01           0      0.0068       0.000
  WeLL70               JUNCTION      6.59    20.97     0  01:01     0.00973      0.0314       0.000
  WeLL71               JUNCTION      0.00     0.00     0  00:00           0           0       0.000 ltr
  WeLL72               JUNCTION      2.22     2.22     0  01:01     0.00318     0.00318       0.000
  WeLL73               JUNCTION      2.20     2.20     0  01:01     0.00323     0.00323       0.000
  WeLL74               JUNCTION      5.65     9.91     0  01:01     0.00854      0.0149       0.000
  WeLL75               JUNCTION      0.00    38.23     0  01:02           0      0.0593       0.000
  WeLL76               JUNCTION      3.57     3.57     0  01:01     0.00531     0.00531       0.000
  WeLL77               JUNCTION      0.00     3.50     0  01:01           0     0.00529       0.000
  WeLL78               JUNCTION      4.39     7.84     0  01:02     0.00673       0.012       0.000
  WeLL79               JUNCTION      0.00     7.81     0  01:02           0       0.012       0.000
  WeLL80               JUNCTION      3.79    11.50     0  01:02     0.00574      0.0177       0.000
  WeLL81               JUNCTION      0.00     0.00     0  00:00           0           0       0.000 ltr
  WeLL82               JUNCTION      0.00     0.00     0  00:00           0           0       0.000 ltr
  WeLL83               JUNCTION      7.41    18.76     0  01:02      0.0112      0.0289       0.000
  WeLL84               JUNCTION      0.00    20.33     0  01:01           0      0.0311       0.000
  WeLL85               JUNCTION      0.00    20.29     0  01:02           0       0.031       0.000
  WeLL86               JUNCTION      5.02    19.32     0  01:01     0.00782      0.0292       0.000
  WeLL87               JUNCTION      5.77    10.64     0  01:01     0.00827      0.0155       0.000
  WeLL88               JUNCTION      0.00    20.26     0  01:02           0       0.031       0.000
  WeLL89               JUNCTION      4.81    23.96     0  01:02     0.00735      0.0364       0.000
  WeLL90               JUNCTION      0.00    23.94     0  01:02           0      0.0364       0.000
  WeLL91               JUNCTION      0.00    20.16     0  01:02           0      0.0309       0.000
  WeLL92               JUNCTION      1.87     2.10     0  01:01     0.00258     0.00298       0.000
  WeLL93               JUNCTION      0.00    15.62     0  01:02           0      0.0233       0.000
  WeLL94               JUNCTION      0.00    20.32     0  01:03           0      0.0329       0.000
  WeLL95               JUNCTION      1.30    20.03     0  01:02     0.00203      0.0318       0.000
  WeLL96               JUNCTION      0.68    20.52     0  01:03    0.000914      0.0326       0.000
  WeLL97               JUNCTION      0.00     0.00     0  00:00           0           0       0.000 ltr
  WeLL100              JUNCTION      0.00    47.09     0  01:03           0      0.0762       0.000
  WeLL102              JUNCTION      0.00    46.98     0  01:03           0      0.0761       0.000
  WeLL103              JUNCTION      0.00    36.13     0  01:01           0      0.0727       0.000
  WeLL104              JUNCTION      0.00    35.79     0  01:08           0      0.0725       0.000
  WeLL105              JUNCTION      4.04     4.04     0  01:01      0.0062      0.0062       0.000
  WeLL106              JUNCTION      1.15    36.17     0  01:08     0.00181      0.0742       0.000
  WeLL107              JUNCTION      0.00     4.82     0  01:02           0     0.00726       0.000
  WeLL108              JUNCTION      0.00     0.00     0  00:00           0           0       0.000 ltr
  Outfall1             OUTFALL       0.00    49.13     0  01:03           0      0.0792       0.000
  Outfall2             OUTFALL       0.00     4.00     0  01:02           0     0.00619       0.000
  Outfall3             OUTFALL       0.00    35.84     0  01:09           0      0.0739       0.000
  Outfall4             OUTFALL       0.00    44.01     0  01:02           0      0.0671       0.000
  Outfall5             OUTFALL       0.00    38.18     0  01:02           0      0.0591       0.000
  Storage0             STORAGE       0.00     0.00     0  00:00           0           0       0.000 ltr
  Storage1             STORAGE       0.00     0.00     0  00:00           0           0       0.000 ltr
  Storage2             STORAGE       0.00     0.00     0  00:00           0           0       0.000 ltr
  Storage3             STORAGE       0.00     0.00     0  00:00           0           0       0.000 ltr
  Storage4             STORAGE       0.00     0.00     0  00:00           0           0       0.000 ltr
  Storage5             STORAGE       0.00     0.00     0  00:00           0           0       0.000 ltr
  Storage6             STORAGE       0.00     0.00     0  00:00           0           0       0.000 ltr
  
  
  **********************
  Node Surcharge Summary
  **********************
  
  Surcharging occurs when water rises above the top of the highest conduit.
  ---------------------------------------------------------------------
                                               Max. Height   Min. Depth
                                   Hours       Above Crown    Below Rim
  Node                 Type      Surcharged         Meters       Meters
  ---------------------------------------------------------------------
  WeLL96               JUNCTION        2.91          0.675        0.000
[...]
  JUN-10-2017 00:56:00     17.688     2.495     0.047     0.100
  JUN-10-2017 00:57:00     19.664     2.589     0.049     0.107
  JUN-10-2017 00:58:00     22.152     2.675     0.052     0.117
  JUN-10-2017 00:59:00     25.041     2.770     0.056     0.128
  JUN-10-2017 01:00:00     28.572     2.874     0.060     0.141
  JUN-10-2017 01:01:00     33.101     2.995     0.064     0.156
  JUN-10-2017 01:02:00     37.481     3.118     0.068     0.170
  JUN-10-2017 01:03:00     37.704     3.127     0.068     0.171
  JUN-10-2017 01:04:00     35.201     3.068     0.066     0.162
  JUN-10-2017 01:05:00     31.962     2.983     0.063     0.152
  JUN-10-2017 01:06:00     28.613     2.881     0.059     0.141
  JUN-10-2017 01:07:00     26.032     2.810     0.057     0.131
  JUN-10-2017 01:08:00     23.695     2.739     0.054     0.122
  JUN-10-2017 01:09:00     21.857     2.676     0.052     0.116
  JUN-10-2017 01:10:00     19.968     2.608     0.050     0.108
  JUN-10-2017 01:11:00     18.228     2.529     0.048     0.102
  JUN-10-2017 01:12:00     16.777     2.472     0.046     0.096
  JUN-10-2017 01:13:00     15.368     2.399     0.044     0.091
  JUN-10-2017 01:14:00     14.497     2.371     0.042     0.087
  JUN-10-2017 01:15:00     13.568     2.315     0.041     0.083
  JUN-10-2017 01:16:00     12.729     2.266     0.040     0.079
  JUN-10-2017 01:17:00     11.902     2.225     0.039     0.076
  JUN-10-2017 01:18:00     11.298     2.198     0.038     0.073
  JUN-10-2017 01:19:00     10.673     2.165     0.037     0.070
  JUN-10-2017 01:20:00     10.126     2.131     0.036     0.067
  JUN-10-2017 01:21:00      9.599     2.090     0.035     0.065
  JUN-10-2017 01:22:00      9.163     2.057     0.034     0.063
  JUN-10-2017 01:23:00      8.743     2.022     0.033     0.061
  JUN-10-2017 01:24:00      8.366     1.996     0.033     0.059
  JUN-10-2017 01:25:00      7.998     1.978     0.032     0.057
  JUN-10-2017 01:26:00      7.659     1.959     0.031     0.055
  JUN-10-2017 01:27:00      7.350     1.941     0.031     0.054
  JUN-10-2017 01:28:00      7.055     1.922     0.030     0.052
  JUN-10-2017 01:29:00      6.782     1.899     0.029     0.051
  JUN-10-2017 01:30:00      6.527     1.877     0.029     0.049
  JUN-10-2017 01:31:00      6.290     1.855     0.028     0.048
  JUN-10-2017 01:32:00      6.067     1.833     0.028     0.047
  JUN-10-2017 01:33:00      5.868     1.813     0.027     0.046
  JUN-10-2017 01:34:00      5.687     1.794     0.027     0.045
  JUN-10-2017 01:35:00      5.504     1.774     0.027     0.044
  JUN-10-2017 01:36:00      5.330     1.754     0.026     0.043
  JUN-10-2017 01:37:00      5.168     1.734     0.026     0.042
  JUN-10-2017 01:38:00      5.014     1.715     0.026     0.041
  JUN-10-2017 01:39:00      4.870     1.696     0.025     0.041
  JUN-10-2017 01:40:00      4.732     1.682     0.025     0.040
  JUN-10-2017 01:41:00      4.602     1.669     0.025     0.039
  JUN-10-2017 01:42:00      4.478     1.657     0.024     0.038
  JUN-10-2017 01:43:00      4.360     1.646     0.024     0.037
  JUN-10-2017 01:44:00      4.251     1.632     0.024     0.037
  JUN-10-2017 01:45:00      4.149     1.618     0.023     0.036
  JUN-10-2017 01:46:00      4.047     1.605     0.023     0.036
  JUN-10-2017 01:47:00      3.950     1.592     0.023     0.035
  JUN-10-2017 01:48:00      3.858     1.579     0.023     0.035
  JUN-10-2017 01:49:00      3.769     1.567     0.022     0.034
  JUN-10-2017 01:50:00      3.685     1.556     0.022     0.034
  JUN-10-2017 01:51:00      3.604     1.545     0.022     0.033
  JUN-10-2017 01:52:00      3.524     1.534     0.022     0.033
  JUN-10-2017 01:53:00      3.452     1.523     0.022     0.032
  JUN-10-2017 01:54:00      3.381     1.514     0.021     0.032
  JUN-10-2017 01:55:00      3.314     1.504     0.021     0.031
  JUN-10-2017 01:56:00      3.249     1.495     0.021     0.031
  JUN-10-2017 01:57:00      3.185     1.486     0.021     0.030
  JUN-10-2017 01:58:00      3.124     1.477     0.021     0.030
  JUN-10-2017 01:59:00      3.066     1.469     0.020     0.030
  JUN-10-2017 02:00:00      3.009     1.461     0.020     0.029
  JUN-10-2017 02:01:00      2.954     1.453     0.020     0.029
  JUN-10-2017 02:02:00      2.873     1.442     0.020     0.028
  JUN-10-2017 02:03:00      2.640     1.411     0.019     0.026
  JUN-10-2017 02:04:00      2.271     1.354     0.018     0.024
  JUN-10-2017 02:05:00      1.880     1.271     0.016     0.021
  JUN-10-2017 02:06:00      1.592     1.205     0.015     0.019
  JUN-10-2017 02:07:00      1.365     1.146     0.014     0.017
  JUN-10-2017 02:08:00      1.160     1.096     0.013     0.015
  JUN-10-2017 02:09:00      0.993     1.054     0.012     0.013
  JUN-10-2017 02:10:00      0.859     1.007     0.011     0.012
  JUN-10-2017 02:11:00      0.749     0.965     0.010     0.011
  JUN-10-2017 02:12:00      0.659     0.927     0.010     0.010
  JUN-10-2017 02:13:00      0.584     0.893     0.009     0.009
  JUN-10-2017 02:14:00      0.520     0.862     0.009     0.009
  JUN-10-2017 02:15:00      0.467     0.833     0.008     0.008
  JUN-10-2017 02:16:00      0.420     0.807     0.008     0.007
  JUN-10-2017 02:17:00      0.380     0.784     0.008     0.007
  JUN-10-2017 02:18:00      0.346     0.762     0.007     0.006
  JUN-10-2017 02:19:00      0.315     0.742     0.007     0.006
  JUN-10-2017 02:20:00      0.288     0.724     0.007     0.006
  JUN-10-2017 02:21:00      0.265     0.707     0.006     0.005
  JUN-10-2017 02:22:00      0.244     0.691     0.006     0.005
  JUN-10-2017 02:23:00      0.225     0.677     0.006     0.005
  JUN-10-2017 02:24:00      0.208     0.659     0.006     0.004
  JUN-10-2017 02:25:00      0.193     0.642     0.006     0.004
  JUN-10-2017 02:26:00      0.180     0.626     0.005     0.004
  JUN-10-2017 02:27:00      0.168     0.610     0.005     0.004
  JUN-10-2017 02:28:00      0.156     0.596     0.005     0.004
  JUN-10-2017 02:29:00      0.146     0.581     0.005     0.004
  JUN-10-2017 02:30:00      0.137     0.568     0.005     0.003
  JUN-10-2017 02:31:00      0.129     0.555     0.005     0.003
  JUN-10-2017 02:32:00      0.121     0.542     0.004     0.003
  JUN-10-2017 02:33:00      0.114     0.530     0.004     0.003
  JUN-10-2017 02:34:00      0.107     0.519     0.004     0.003
  JUN-10-2017 02:35:00      0.101     0.507     0.004     0.003
  JUN-10-2017 02:36:00      0.096     0.497     0.004     0.003
  JUN-10-2017 02:37:00      0.091     0.486     0.004     0.003
  JUN-10-2017 02:38:00      0.086     0.476     0.004     0.003
  JUN-10-2017 02:39:00      0.082     0.466     0.004     0.002
  JUN-10-2017 02:40:00      0.078     0.457     0.004     0.002
  JUN-10-2017 02:41:00      0.074     0.448     0.004     0.002
  JUN-10-2017 02:42:00      0.070     0.439     0.003     0.002
  JUN-10-2017 02:43:00      0.067     0.431     0.003     0.002
  JUN-10-2017 02:44:00      0.064     0.423     0.003     0.002
  JUN-10-2017 02:45:00      0.061     0.415     0.003     0.002
  JUN-10-2017 02:46:00      0.058     0.407     0.003     0.002
  JUN-10-2017 02:47:00      0.056     0.400     0.003     0.002
  JUN-10-2017 02:48:00      0.053     0.392     0.003     0.002
  JUN-10-2017 02:49:00      0.051     0.000     0.003     0.002
  JUN-10-2017 02:50:00      0.049     0.000     0.003     0.002
  JUN-10-2017 02:51:00      0.047     0.000     0.003     0.002
  JUN-10-2017 02:52:00      0.045     0.000     0.003     0.002
  JUN-10-2017 02:53:00      0.043     0.000     0.003     0.002
  JUN-10-2017 02:54:00      0.041     0.000     0.003     0.002
  JUN-10-2017 02:55:00      0.040     0.000     0.003     0.002
  JUN-10-2017 02:56:00      0.038     0.000     0.003     0.002
  JUN-10-2017 02:57:00      0.037     0.000     0.003     0.002
  JUN-10-2017 02:58:00      0.035     0.000     0.003     0.002
  JUN-10-2017 02:59:00      0.034     0.000     0.003     0.001
  JUN-10-2017 03:00:00      0.033     0.000     0.002     0.001
  
  
  <<< Link AdminToOut5 >>>
  ----------------------------------------------------------------
                             Flow  Velocity     Depth  Capacity/
  Date        Time            LPS     m/sec    meters   Setting 
  ----------------------------------------------------------------
  JUN-10-2017 00:01:00      0.000     0.000     0.000     0.000
  JUN-10-2017 00:02:00      0.001     0.000     0.001     0.000
  JUN-10-2017 00:03:00      0.003     0.000     0.001     0.001
  JUN-10-2017 00:04:00      0.005     0.000     0.001     0.001
  JUN-10-2017 00:05:00      0.008     0.000     0.001     0.001
  JUN-10-2017 00:06:00      0.013     0.000     0.002     0.001
  JUN-10-2017 00:07:00      0.019     0.000     0.002     0.001
  JUN-10-2017 00:08:00      0.026     0.000     0.002     0.001
  JUN-10-2017 00:09:00      0.031     0.000     0.003     0.002
  JUN-10-2017 00:10:00      0.035     0.000     0.003     0.002
  JUN-10-2017 00:11:00      0.038     0.000     0.003     0.002
  JUN-10-2017 00:12:00      0.041     0.000     0.003     0.002
  JUN-10-2017 00:13:00      0.045     0.318     0.003     0.002
  JUN-10-2017 00:14:00      0.050     0.333     0.003     0.002
  JUN-10-2017 00:15:00      0.057     0.351     0.004     0.002
  JUN-10-2017 00:16:00      0.064     0.369     0.004     0.002
  JUN-10-2017 00:17:00      0.070     0.383     0.004     0.003
  JUN-10-2017 00:18:00      0.079     0.398     0.004     0.003
  JUN-10-2017 00:19:00      0.092     0.421     0.004     0.003
  JUN-10-2017 00:20:00      0.112     0.453     0.005     0.004
  JUN-10-2017 00:21:00      0.135     0.485     0.005     0.004
  JUN-10-2017 00:22:00      0.157     0.514     0.006     0.004
  JUN-10-2017 00:23:00      0.177     0.536     0.006     0.005
  JUN-10-2017 00:24:00      0.194     0.551     0.006     0.005
  JUN-10-2017 00:25:00      0.244     0.577     0.007     0.006
  JUN-10-2017 00:26:00      0.387     0.655     0.009     0.008
  JUN-10-2017 00:27:00      0.650     0.777     0.011     0.012
  JUN-10-2017 00:28:00      0.958     0.873     0.013     0.016
  JUN-10-2017 00:29:00      1.248     0.947     0.015     0.019
  JUN-10-2017 00:30:00      1.515     1.013     0.016     0.021
  JUN-10-2017 00:31:00      1.845     1.086     0.018     0.024
  JUN-10-2017 00:32:00      2.564     1.186     0.021     0.031
  JUN-10-2017 00:33:00      3.577     1.324     0.024     0.038
  JUN-10-2017 00:34:00      4.501     1.433     0.027     0.044
  JUN-10-2017 00:35:00      5.313     1.514     0.029     0.050
  JUN-10-2017 00:36:00      5.942     1.565     0.031     0.054
  JUN-10-2017 00:37:00      6.461     1.597     0.032     0.057
  JUN-10-2017 00:38:00      6.989     1.627     0.033     0.061
  JUN-10-2017 00:39:00      7.430     1.664     0.034     0.063
  JUN-10-2017 00:40:00      7.956     1.703     0.035     0.066
  JUN-10-2017 00:41:00      8.403     1.735     0.036     0.069
  JUN-10-2017 00:42:00      8.845     1.761     0.037     0.071
  JUN-10-2017 00:43:00      9.290     1.784     0.038     0.074
  JUN-10-2017 00:44:00      9.760     1.806     0.039     0.076
  JUN-10-2017 00:45:00     10.371     1.837     0.040     0.080
  JUN-10-2017 00:46:00     10.915     1.867     0.041     0.083
  JUN-10-2017 00:47:00     11.531     1.903     0.042     0.086
  JUN-10-2017 00:48:00     12.237     1.938     0.043     0.089
  JUN-10-2017 00:49:00     12.912     1.966     0.045     0.093
  JUN-10-2017 00:50:00     13.695     1.989     0.046     0.097
  JUN-10-2017 00:51:00     14.631     2.029     0.048     0.102
  JUN-10-2017 00:52:00     15.675     2.075     0.049     0.107
  JUN-10-2017 00:53:00     17.042     2.128     0.051     0.113
  JUN-10-2017 00:54:00     18.573     2.185     0.053     0.120
  JUN-10-2017 00:55:00     20.097     2.243     0.055     0.127
  JUN-10-2017 00:56:00     21.898     2.298     0.058     0.135
  JUN-10-2017 00:57:00     24.421     2.369     0.061     0.146
  JUN-10-2017 00:58:00     27.128     2.433     0.064     0.158
  JUN-10-2017 00:59:00     30.637     2.528     0.068     0.171
  JUN-10-2017 01:00:00     34.949     2.625     0.073     0.188
  JUN-10-2017 01:01:00     40.206     2.736     0.078     0.208
  JUN-10-2017 01:02:00     45.297     2.833     0.083     0.226
  JUN-10-2017 01:03:00     48.216     2.885     0.086     0.236
  JUN-10-2017 01:04:00     48.959     2.898     0.087     0.239
  JUN-10-2017 01:05:00     46.147     2.858     0.084     0.228
  JUN-10-2017 01:06:00     42.039     2.779     0.080     0.214
  JUN-10-2017 01:07:00     37.955     2.701     0.076     0.199
  JUN-10-2017 01:08:00     34.423     2.626     0.072     0.185
  JUN-10-2017 01:09:00     30.906     2.544     0.068     0.172
  JUN-10-2017 01:10:00     28.310     2.481     0.066     0.161
  JUN-10-2017 01:11:00     25.906     2.409     0.063     0.152
  JUN-10-2017 01:12:00     23.666     2.351     0.060     0.142
  JUN-10-2017 01:13:00     22.131     2.310     0.058     0.136
  JUN-10-2017 01:14:00     20.354     2.252     0.056     0.128
  JUN-10-2017 01:15:00     19.316     2.220     0.054     0.123
  JUN-10-2017 01:16:00     18.012     2.173     0.052     0.117
  JUN-10-2017 01:17:00     17.025     2.142     0.051     0.112
  JUN-10-2017 01:18:00     16.009     2.100     0.049     0.108
  JUN-10-2017 01:19:00     15.092     2.064     0.048     0.103
  JUN-10-2017 01:20:00     14.302     2.027     0.047     0.100
  JUN-10-2017 01:21:00     13.518     1.997     0.046     0.096
  JUN-10-2017 01:22:00     12.853     1.968     0.044     0.092
  JUN-10-2017 01:23:00     12.252     1.942     0.043     0.089
  JUN-10-2017 01:24:00     11.628     1.913     0.042     0.086
  JUN-10-2017 01:25:00     11.127     1.886     0.041     0.083
  JUN-10-2017 01:26:00     10.709     1.860     0.041     0.081
  JUN-10-2017 01:27:00     10.299     1.836     0.040     0.079
  JUN-10-2017 01:28:00      9.887     1.815     0.039     0.077
  JUN-10-2017 01:29:00      9.532     1.800     0.038     0.075
  JUN-10-2017 01:30:00      9.136     1.781     0.038     0.073
  JUN-10-2017 01:31:00      8.794     1.760     0.037     0.071
  JUN-10-2017 01:32:00      8.486     1.745     0.036     0.069
  JUN-10-2017 01:33:00      8.195     1.724     0.036     0.067
  JUN-10-2017 01:34:00      7.916     1.704     0.035     0.066
  JUN-10-2017 01:35:00      7.676     1.686     0.035     0.064
  JUN-10-2017 01:36:00      7.435     1.667     0.034     0.063
  JUN-10-2017 01:37:00      7.213     1.649     0.034     0.062
  JUN-10-2017 01:38:00      6.999     1.631     0.033     0.061
  JUN-10-2017 01:39:00      6.797     1.618     0.033     0.059
  JUN-10-2017 01:40:00      6.603     1.608     0.032     0.058
  JUN-10-2017 01:41:00      6.416     1.598     0.032     0.057
  JUN-10-2017 01:42:00      6.240     1.588     0.031     0.056
  JUN-10-2017 01:43:00      6.081     1.579     0.031     0.054
  JUN-10-2017 01:44:00      5.922     1.570     0.030     0.053
  JUN-10-2017 01:45:00      5.769     1.560     0.030     0.052
  JUN-10-2017 01:46:00      5.623     1.549     0.030     0.051
  JUN-10-2017 01:47:00      5.484     1.537     0.029     0.050
  JUN-10-2017 01:48:00      5.352     1.526     0.029     0.050
  JUN-10-2017 01:49:00      5.226     1.514     0.029     0.049
  JUN-10-2017 01:50:00      5.106     1.503     0.028     0.048
  JUN-10-2017 01:51:00      4.995     1.493     0.028     0.047
  JUN-10-2017 01:52:00      4.892     1.483     0.028     0.047
  JUN-10-2017 01:53:00      4.789     1.472     0.028     0.046
  JUN-10-2017 01:54:00      4.687     1.462     0.027     0.045
  JUN-10-2017 01:55:00      4.589     1.451     0.027     0.045
  JUN-10-2017 01:56:00      4.496     1.441     0.027     0.044
  JUN-10-2017 01:57:00      4.406     1.431     0.027     0.044
  JUN-10-2017 01:58:00      4.318     1.421     0.026     0.043
  JUN-10-2017 01:59:00      4.235     1.411     0.026     0.042
  JUN-10-2017 02:00:00      4.157     1.401     0.026     0.042
  JUN-10-2017 02:01:00      4.085     1.392     0.026     0.042
  JUN-10-2017 02:02:00      3.910     1.371     0.025     0.040
  JUN-10-2017 02:03:00      3.604     1.342     0.024     0.038
  JUN-10-2017 02:04:00      3.334     1.310     0.023     0.036
  JUN-10-2017 02:05:00      3.017     1.266     0.022     0.034
  JUN-10-2017 02:06:00      2.767     1.235     0.021     0.032
  JUN-10-2017 02:07:00      2.370     1.179     0.020     0.028
  JUN-10-2017 02:08:00      2.084     1.138     0.019     0.026
  JUN-10-2017 02:09:00      1.813     1.090     0.018     0.024
  JUN-10-2017 02:10:00      1.554     1.032     0.016     0.021
  JUN-10-2017 02:11:00      1.384     0.994     0.015     0.020
  JUN-10-2017 02:12:00      1.187     0.947     0.014     0.018
  JUN-10-2017 02:13:00      1.055     0.919     0.014     0.016
  JUN-10-2017 02:14:00      0.936     0.886     0.013     0.015
  JUN-10-2017 02:15:00      0.836     0.862     0.012     0.014
  JUN-10-2017 02:16:00      0.751     0.835     0.012     0.013
  JUN-10-2017 02:17:00      0.676     0.808     0.011     0.012
  JUN-10-2017 02:18:00      0.611     0.783     0.011     0.011
  JUN-10-2017 02:19:00      0.555     0.760     0.010     0.010
  JUN-10-2017 02:20:00      0.505     0.738     0.010     0.010
  JUN-10-2017 02:21:00      0.462     0.718     0.009     0.009
  JUN-10-2017 02:22:00      0.423     0.699     0.009     0.009
  JUN-10-2017 02:23:00      0.389     0.681     0.009     0.008
  JUN-10-2017 02:24:00      0.359     0.664     0.008     0.008
  JUN-10-2017 02:25:00      0.332     0.649     0.008     0.007
  JUN-10-2017 02:26:00      0.308     0.635     0.008     0.007
  JUN-10-2017 02:27:00      0.286     0.621     0.007     0.007
  JUN-10-2017 02:28:00      0.266     0.608     0.007     0.006
  JUN-10-2017 02:29:00      0.248     0.596     0.007     0.006
  JUN-10-2017 02:30:00      0.232     0.585     0.007     0.006
  JUN-10-2017 02:31:00      0.217     0.574     0.007     0.005
  JUN-10-2017 02:32:00      0.204     0.565     0.006     0.005
  JUN-10-2017 02:33:00      0.192     0.555     0.006     0.005
  JUN-10-2017 02:34:00      0.180     0.546     0.006     0.005
  JUN-10-2017 02:35:00      0.170     0.535     0.006     0.004
  JUN-10-2017 02:36:00      0.160     0.524     0.006     0.004
  JUN-10-2017 02:37:00      0.151     0.514     0.006     0.004
  JUN-10-2017 02:38:00      0.143     0.504     0.005     0.004
  JUN-10-2017 02:39:00      0.136     0.494     0.005     0.004
  JUN-10-2017 02:40:00      0.129     0.485     0.005     0.004
  JUN-10-2017 02:41:00      0.122     0.476     0.005     0.004
  JUN-10-2017 02:42:00      0.116     0.467     0.005     0.004
  JUN-10-2017 02:43:00      0.110     0.459     0.005     0.003
  JUN-10-2017 02:44:00      0.105     0.451     0.005     0.003
  JUN-10-2017 02:45:00      0.100     0.443     0.005     0.003
  JUN-10-2017 02:46:00      0.096     0.435     0.004     0.003
  JUN-10-2017 02:47:00      0.091     0.428     0.004     0.003
  JUN-10-2017 02:48:00      0.087     0.420     0.004     0.003
  JUN-10-2017 02:49:00      0.083     0.413     0.004     0.003
  JUN-10-2017 02:50:00      0.080     0.407     0.004     0.003
  JUN-10-2017 02:51:00      0.077     0.400     0.004     0.003
  JUN-10-2017 02:52:00      0.073     0.393     0.004     0.003
  JUN-10-2017 02:53:00      0.070     0.387     0.004     0.003
  JUN-10-2017 02:54:00      0.068     0.381     0.004     0.003
  JUN-10-2017 02:55:00      0.065     0.375     0.004     0.002
  JUN-10-2017 02:56:00      0.062     0.369     0.004     0.002
  JUN-10-2017 02:57:00      0.060     0.363     0.004     0.002
  JUN-10-2017 02:58:00      0.058     0.358     0.004     0.002
  JUN-10-2017 02:59:00      0.056     0.353     0.003     0.002
  JUN-10-2017 03:00:00      0.053     0.347     0.003     0.002
  

  Analysis begun on:  Mon May 04 10:54:34 2020
  Analysis ended on:  Mon May 04 10:54:34 2020
  Total elapsed time: < 1 sec